  11110
   1320
    440
    320
    231
    170
    143
    120
     AA
     A0
     93
     88
     80
     78
  ERROR
 123211
  24030
  12101
   5101
   3345
   2371
   1765
   1365
   1031
    A5A
    901
    7CA
    6E5
  ERROR
 121020
   3223
   2010
   1164
    666
    536
    438
    369
    306
    279
    234
    1E3
    1B6
  ERROR
  ERROR
 231302
  21322
  11354
   5562
   4015
   2930
   2224
   1842
   1445
   10D4
    D05
    B72
 100010
   1021
    202
    114
     46
     42
     37
     34
     31
     2A
     28
     26
     24
     22
  ERROR
 110100
  11031
   2313
   1313
    654
    515
    410
    333
    283
    239
    1C8
    19B
    173
    14D
  ERROR
  ERROR
 332230
 112022
  30324
  14461
   5447
   4012
   3018
   23A4
   1A98
   1668
   12C7
    FAC
  ERROR
  ERROR
  ERROR
  ERROR
3330001
1125034
 331315
 161416
  58126
  3A742
  2977A
  205C3
  1727C
  12351
   E30E
  ERROR
1100120
  33123
  12422
   4323
   2610
   1733
   1316
    818
    6A3
    5AC
    507
    45C
    3DB
  ERROR
  ERROR
3202132
 430434
 151034
  60154
  34236
  21784
  14494
   847A
   679C
   53D4
   4464
   389E
  ERROR
  11212
   2003
   1011
    335
    245
    203
    155
    131
    10A
     A1
     95
     8B
     83
  ERROR
2202200
 133200
  31031
  13200
   5610
   3740
   2680
   2016
   1573
   1200
    A40
    8E6
    7E0
  ERROR
2222211
 202012
  32212
  14034
   6235
   4206
   2884
   2182
   1704
   131A
    CBB
    9A7
    886
  11001
    221
    121
    100
     41
     34
     31
     27
     25
     23
     21
     1C
     1B
     1A
     19
  ERROR
  12201
   2122
   1104
    414
    310
    232
    181
    154
    130
    10A
     BB
     B0
     A4
